Version 4
SHEET 1 880 680
WIRE 0 -576 -432 -576
WIRE 128 -576 0 -576
WIRE 256 -576 128 -576
WIRE 0 -512 0 -576
WIRE 128 -512 128 -576
WIRE 256 -400 256 -576
WIRE 128 -352 128 -432
WIRE 192 -352 128 -352
WIRE 128 -320 128 -352
WIRE 0 -272 0 -432
WIRE 0 -272 -224 -272
WIRE 64 -272 0 -272
WIRE 176 -224 128 -224
WIRE 256 -224 256 -304
WIRE 256 -224 176 -224
WIRE 0 -176 0 -272
WIRE 176 -128 176 -224
WIRE 176 -128 64 -128
WIRE 176 -80 176 -128
WIRE -432 64 -432 -576
WIRE 0 112 0 -80
WIRE 176 112 176 0
WIRE 176 112 0 112
WIRE 256 112 176 112
WIRE 176 176 176 112
WIRE 256 272 256 112
WIRE -224 304 -224 -272
WIRE -176 304 -224 304
WIRE 176 304 176 256
WIRE 176 304 80 304
WIRE 176 400 176 304
WIRE -224 432 -224 304
WIRE -176 432 -224 432
WIRE 112 432 80 432
WIRE 112 496 112 432
WIRE 112 496 80 496
WIRE 176 496 176 480
WIRE 176 496 112 496
WIRE 256 496 256 352
WIRE 256 496 176 496
WIRE -432 512 -432 144
WIRE 256 512 256 496
FLAG 256 512 0
FLAG -432 512 0
SYMBOL pnp 192 -304 M180
SYMATTR InstName Q1
SYMATTR Value D45H11
SYMBOL npn 64 -320 R0
SYMATTR InstName Q2
SYMATTR Value 2N2222
SYMBOL voltage -432 48 R0
WINDOW 123 0 0 Left 2
WINDOW 39 0 0 Left 2
SYMATTR InstName V1
SYMATTR Value 10.4
SYMBOL res 112 -528 R0
SYMATTR InstName R1
SYMATTR Value 100
SYMBOL res -16 -528 R0
SYMATTR InstName R2
SYMATTR Value 100
SYMBOL res 160 384 R0
SYMATTR InstName R3
SYMATTR Value 2.5k
SYMBOL res 160 160 R0
SYMATTR InstName R4
SYMATTR Value 5.9k
SYMBOL References\\LT1431 -48 400 R0
SYMATTR InstName U2
SYMBOL res 160 -96 R0
SYMATTR InstName R5
SYMATTR Value .07
SYMBOL voltage 256 256 R0
WINDOW 123 0 0 Left 2
WINDOW 39 0 0 Left 2
SYMATTR InstName V2
SYMATTR Value 8.4
SYMBOL npn 64 -176 M0
SYMATTR InstName Q3
SYMATTR Value 2N2222
TEXT -554 608 Left 2 !.tran 2m
